xflr5 v6.56

 Calculated polar for: NACA 65(2)-415

 1 1 Reynolds number fixed          Mach number fixed         

 xtrf =   1.000 (top)        1.000 (bottom)
 Mach =   0.000     Re =     4.788 e 6     Ncrit =   9.000

  alpha     CL        CD       CDp       Cm    Top Xtr Bot Xtr   Cpmin    Chinge    XCp    
 ------- -------- --------- --------- -------- ------- ------- -------- --------- ---------
 -22.000  -1.0496   0.09981   0.09788  -0.0657  1.0000  0.0063  -16.3310   0.0000   0.0000   0.0000   0.1500
 -21.500  -1.1394   0.07899   0.07674  -0.0782  1.0000  0.0063  -17.5313   0.0000   0.0000   0.0000   0.1461
 -21.000  -1.1795   0.06707   0.06460  -0.0847  1.0000  0.0063  -17.8235   0.0000   0.0000   0.0000   0.1447
 -20.500  -1.2084   0.05767   0.05500  -0.0892  1.0000  0.0063  -17.8905   0.0000   0.0000   0.0000   0.1444
 -20.000  -1.2239   0.05075   0.04792  -0.0917  1.0000  0.0063  -17.7349   0.0000   0.0000   0.0000   0.1449
 -19.500  -1.2358   0.04461   0.04163  -0.0932  1.0000  0.0064  -17.5079   0.0000   0.0000   0.0000   0.1458
 -19.000  -1.2439   0.03930   0.03619  -0.0938  1.0000  0.0064  -17.2150   0.0000   0.0000   0.0000   0.1472
 -18.500  -1.2386   0.03567   0.03244  -0.0933  1.0000  0.0064  -16.7516   0.0000   0.0000   0.0000   0.1486
 -18.000  -1.2037   0.03124   0.02788  -0.0998  0.9986  0.0064  -16.0254   0.0000   0.0000   0.0000   0.1422
 -17.500  -1.1773   0.02833   0.02488  -0.1016  0.9980  0.0065  -15.3596   0.0000   0.0000   0.0000   0.1399
 -17.000  -1.1484   0.02526   0.02170  -0.1042  0.9970  0.0065  -14.6834   0.0000   0.0000   0.0000   0.1365
 -16.500  -1.1134   0.02299   0.01935  -0.1059  0.9958  0.0065  -13.9507   0.0000   0.0000   0.0000   0.1330
 -16.000  -1.0885   0.02072   0.01700  -0.1060  0.9943  0.0066  -13.3199   0.0000   0.0000   0.0000   0.1318
 -15.500  -1.0591   0.01903   0.01522  -0.1055  0.9920  0.0066  -12.6550   0.0000   0.0000   0.0000   0.1304
 -15.000  -1.0359   0.01744   0.01356  -0.1039  0.9876  0.0067  -12.0511   0.0000   0.0000   0.0000   0.1307
 -14.500  -1.0048   0.01616   0.01223  -0.1026  0.9785  0.0067  -11.3883   0.0000   0.0000   0.0000   0.1296
 -14.000  -0.9782   0.01487   0.01077  -0.1006  0.9258  0.0068  -10.7764   0.0000   0.0000   0.0000   0.1297
 -13.500  -0.9597   0.01393   0.00971  -0.0961  0.8960  0.0068  -10.2333   0.0000   0.0000   0.0000   0.1333
 -13.000  -0.9485   0.01308   0.00867  -0.0902  0.8581  0.0069  -9.7537   0.0000   0.0000   0.0000   0.1393
 -12.500  -0.9363   0.01231   0.00781  -0.0840  0.8420  0.0069  -9.2742   0.0000   0.0000   0.0000   0.1454
 -12.000  -0.9387   0.01188   0.00722  -0.0744  0.8122  0.0069  -8.9034   0.0000   0.0000   0.0000   0.1567
 -11.500  -0.9034   0.01135   0.00663  -0.0716  0.8002  0.0070  -8.2770   0.0000   0.0000   0.0000   0.1574
 -11.000  -0.8617   0.01083   0.00609  -0.0698  0.7958  0.0072  -7.6266   0.0000   0.0000   0.0000   0.1562
 -10.500  -0.8174   0.01033   0.00555  -0.0685  0.7825  0.0081  -6.9836   0.0000   0.0000   0.0000   0.1540
 -10.000  -0.7701   0.00990   0.00507  -0.0677  0.7617  0.0086  -6.3429   0.0000   0.0000   0.0000   0.1504
  -9.500  -0.7193   0.00951   0.00462  -0.0675  0.7504  0.0086  -5.8940   0.0000   0.0000   0.0000   0.1450
  -9.000  -0.6676   0.00910   0.00423  -0.0674  0.7470  0.0092  -5.4427   0.0000   0.0000   0.0000   0.1382
  -8.500  -0.6147   0.00876   0.00387  -0.0675  0.7377  0.0095  -5.0051   0.0000   0.0000   0.0000   0.1297
  -8.000  -0.5610   0.00849   0.00354  -0.0677  0.7210  0.0097  -4.5803   0.0000   0.0000   0.0000   0.1190
  -7.000  -0.4506   0.00789   0.00291  -0.0687  0.7001  0.0104  -3.7790   0.0000   0.0000   0.0000   0.0876
  -6.500  -0.3951   0.00749   0.00258  -0.0692  0.6980  0.0133  -3.4057   0.0000   0.0000   0.0000   0.0646
  -6.000  -0.3384   0.00723   0.00234  -0.0700  0.6929  0.0143  -3.0427   0.0000   0.0000   0.0000   0.0329
  -5.500  -0.2815   0.00705   0.00213  -0.0707  0.6823  0.0148  -2.6919   0.0000   0.0000   0.0000  -0.0121
  -5.000  -0.2243   0.00689   0.00191  -0.0715  0.6681  0.0150  -2.3668   0.0000   0.0000   0.0000  -0.0805
  -4.000  -0.1089   0.00641   0.00148  -0.0733  0.6505  0.0267  -1.7480   0.0000   0.0000   0.0000  -0.4408
  -3.500  -0.0504   0.00625   0.00134  -0.0743  0.6494  0.0277  -1.4580   0.0000   0.0000   0.0000  -1.2575
  -3.000   0.0083   0.00610   0.00121  -0.0753  0.6472  0.0369  -1.1875   0.0000   0.0000   0.0000   9.4909
  -2.500   0.0667   0.00591   0.00109  -0.0763  0.6417  0.0524  -0.9311   0.0000   0.0000   0.0000   1.4104
  -2.000   0.1241   0.00543   0.00090  -0.0774  0.6307  0.1496  -0.6939   0.0000   0.0000   0.0000   0.8803
  -1.500   0.1821   0.00505   0.00076  -0.0786  0.6171  0.2514  -0.6127   0.0000   0.0000   0.0000   0.6847
  -0.500   0.2995   0.00412   0.00056  -0.0814  0.5995  0.5008  -0.6696   0.0000   0.0000   0.0000   0.5216
   0.000   0.3574   0.00405   0.00057  -0.0824  0.5805  0.5646  -0.6983   0.0000   0.0000   0.0000   0.4794
   1.000   0.4654   0.00483   0.00088  -0.0828  0.4356  0.5984  -0.7549   0.0000   0.0000   0.0000   0.4256
   1.500   0.5088   0.00605   0.00138  -0.0812  0.2619  0.6021  -0.7744   0.0000   0.0000   0.0000   0.4068
   2.000   0.5571   0.00672   0.00172  -0.0805  0.1656  0.6245  -0.8024   0.0000   0.0000   0.0000   0.3911
   2.500   0.6067   0.00723   0.00201  -0.0798  0.0926  0.6365  -0.8295   0.0000   0.0000   0.0000   0.3778
   3.000   0.6549   0.00776   0.00235  -0.0789  0.0507  0.6442  -1.0622   0.0000   0.0000   0.0000   0.3662
   3.500   0.7065   0.00806   0.00257  -0.0786  0.0378  0.6472  -1.3467   0.0000   0.0000   0.0000   0.3565
   4.000   0.7577   0.00835   0.00279  -0.0782  0.0288  0.6486  -1.6475   0.0000   0.0000   0.0000   0.3479
   4.500   0.8085   0.00860   0.00302  -0.0777  0.0221  0.6535  -1.9643   0.0000   0.0000   0.0000   0.3403
   5.000   0.8530   0.00905   0.00340  -0.0761  0.0102  0.6707  -2.2731   0.0000   0.0000   0.0000   0.3329
   5.500   0.8958   0.00946   0.00381  -0.0740  0.0070  0.6847  -2.5457   0.0000   0.0000   0.0000   0.3258
   6.000   0.9373   0.00981   0.00427  -0.0717  0.0064  0.6935  -2.8713   0.0000   0.0000   0.0000   0.3191
   6.500   0.9565   0.01012   0.00463  -0.0648  0.0062  0.6973  -3.1236   0.0000   0.0000   0.0000   0.3097
   7.000   0.9849   0.01056   0.00511  -0.0600  0.0060  0.6989  -3.4130   0.0000   0.0000   0.0000   0.3023
   7.500   1.0147   0.01107   0.00571  -0.0557  0.0059  0.7200  -3.7141   0.0000   0.0000   0.0000   0.2957
   8.000   1.0319   0.01176   0.00652  -0.0493  0.0059  0.7379  -3.9754   0.0000   0.0000   0.0000   0.2879
   8.500   1.0569   0.01253   0.00738  -0.0446  0.0058  0.7464  -4.2698   0.0000   0.0000   0.0000   0.2817
   9.000   1.0902   0.01295   0.00771  -0.0417  0.0055  0.7542  -4.7566   0.0000   0.0000   0.0000   0.2771
   9.500   1.1160   0.01366   0.00849  -0.0376  0.0055  0.7802  -5.1278   0.0000   0.0000   0.0000   0.2718
  10.000   1.1452   0.01435   0.00923  -0.0342  0.0055  0.7954  -5.5153   0.0000   0.0000   0.0000   0.2672
  10.500   1.1637   0.01535   0.01029  -0.0294  0.0054  0.8125  -5.8575   0.0000   0.0000   0.0000   0.2619
  11.000   1.1888   0.01627   0.01131  -0.0258  0.0054  0.8412  -6.2397   0.0000   0.0000   0.0000   0.2575
  11.500   1.2154   0.01725   0.01235  -0.0225  0.0054  0.8617  -6.6386   0.0000   0.0000   0.0000   0.2536
  12.000   1.2266   0.01865   0.01394  -0.0173  0.0053  0.9110  -6.9648   0.0000   0.0000   0.0000   0.2483
  12.500   1.2440   0.01997   0.01548  -0.0130  0.0054  1.0000  -7.2711   0.0000   0.0000   0.0000   0.2438
  13.000   1.2695   0.02127   0.01681  -0.0104  0.0053  1.0000  -7.6854   0.0000   0.0000   0.0000   0.2406
  13.500   1.2829   0.02319   0.01877  -0.0067  0.0053  1.0000  -8.0492   0.0000   0.0000   0.0000   0.2368
  14.000   1.3088   0.02456   0.02015  -0.0045  0.0052  1.0000  -8.4959   0.0000   0.0000   0.0000   0.2341
  14.500   1.3331   0.02606   0.02167  -0.0023  0.0051  1.0000  -8.9400   0.0000   0.0000   0.0000   0.2314
  15.000   1.3426   0.02856   0.02423   0.0008  0.0050  1.0000  -9.2942   0.0000   0.0000   0.0000   0.2281
  15.500   1.3657   0.03036   0.02605   0.0026  0.0049  1.0000  -9.7428   0.0000   0.0000   0.0000   0.2257
  16.000   1.3876   0.03228   0.02800   0.0044  0.0047  1.0000  -10.1913   0.0000   0.0000   0.0000   0.2234
  16.500   1.3929   0.03554   0.03132   0.0069  0.0046  1.0000  -10.5290   0.0000   0.0000   0.0000   0.2205
  17.000   1.4121   0.03783   0.03364   0.0083  0.0044  1.0000  -10.9711   0.0000   0.0000   0.0000   0.2185
  17.500   1.4304   0.04026   0.03609   0.0097  0.0041  1.0000  -11.4137   0.0000   0.0000   0.0000   0.2165
  18.000   1.4296   0.04447   0.04037   0.0112  0.0039  1.0000  -11.7122   0.0000   0.0000   0.0000   0.2142
  18.500   1.4426   0.04749   0.04345   0.0122  0.0033  1.0000  -12.1233   0.0000   0.0000   0.0000   0.2124
  19.000   1.4580   0.05054   0.04657   0.0128  0.0033  1.0000  -12.5338   0.0000   0.0000   0.0000   0.2109
  19.500   1.4519   0.05598   0.05213   0.0131  0.0033  1.0000  -12.7703   0.0000   0.0000   0.0000   0.2093
  20.000   1.4650   0.05958   0.05580   0.0131  0.0032  1.0000  -13.1632   0.0000   0.0000   0.0000   0.2081
  20.500   1.4757   0.06353   0.05983   0.0128  0.0032  1.0000  -13.5377   0.0000   0.0000   0.0000   0.2070
  21.000   1.4649   0.07032   0.06675   0.0115  0.0032  1.0000  -13.7192   0.0000   0.0000   0.0000   0.2064
  21.500   1.4741   0.07477   0.07129   0.0105  0.0032  1.0000  -14.0761   0.0000   0.0000   0.0000   0.2058
  22.000   1.4587   0.08273   0.07940   0.0077  0.0032  1.0000  -14.1948   0.0000   0.0000   0.0000   0.2061
  22.500   1.4632   0.08822   0.08498   0.0056  0.0031  1.0000  -14.4979   0.0000   0.0000   0.0000   0.2061
  23.000   1.4424   0.09789   0.09482   0.0013  0.0031  1.0000  -14.5323   0.0000   0.0000   0.0000   0.2075
  23.500   1.4400   0.10479   0.10182  -0.0021  0.0031  1.0000  -14.7452   0.0000   0.0000   0.0000   0.2083
  24.000   1.4132   0.11600   0.11322  -0.0082  0.0031  1.0000  -14.6688   0.0000   0.0000   0.0000   0.2111
  24.500   1.3778   0.12891   0.12633  -0.0160  0.0031  1.0000  -14.4510   0.0000   0.0000   0.0000   0.2152
  25.000   1.3331   0.14391   0.14156  -0.0254  0.0031  1.0000  -14.0570   0.0000   0.0000   0.0000   0.2211
  25.500   1.2707   0.16246   0.16039  -0.0371  0.0031  1.0000  -13.3373   0.0000   0.0000   0.0000   0.2298
  26.000   1.2615   0.17056   0.16858  -0.0424  0.0031  1.0000  -13.3566   0.0000   0.0000   0.0000   0.2326
  26.500   1.1841   0.19252   0.19083  -0.0561  0.0031  1.0000  -12.1925   0.0000   0.0000   0.0000   0.2452
  27.000   1.1472   0.20650   0.20499  -0.0646  0.0031  1.0000  -11.6454   0.0000   0.0000   0.0000   0.2530
  27.500   1.0767   0.22550   0.22423  -0.0760  0.0031  1.0000  -10.2474   0.0000   0.0000   0.0000   0.2669


